@<TRIPOS>MOLECULE

25 27 1
SMALL
NO_CHARGES
@<TRIPOS>ATOM
1	C1     4.5493    -0.6403     0.0000	C.2	1	noname
2	C2     3.2155     0.1295     0.0000	C.2	1	noname
3	C3     3.2155     1.6695     0.0000	C.2	1	noname
4	C4     4.5493     2.4395     0.0000	C.2	1	noname
5	C5     5.8830     1.6695     0.0000	C.2	1	noname
6	C6     5.8830     0.1295     0.0000	C.2	1	noname
7	O1     4.5493    -2.1803     0.0000	O.2	1	noname
8	O2     4.5493     3.9795     0.0000	O.2	1	noname
9	C7     1.7509    -0.3461     0.0000	C.2	1	noname
10	C8     0.8458     0.8995     0.0000	C.2	1	noname
11	O3     1.7509     2.1454     0.0000	O.3	1	noname
12	C9    -0.6940     0.8995     0.0000	C.2	1	noname
13	C10    -1.4640    -0.4340     0.0000	C.2	1	noname
14	C11    -3.0040    -0.4340     0.0000	C.2	1	noname
15	C12    -3.7740     0.8995     0.0000	C.2	1	noname
16	C13    -3.0040     2.2333     0.0000	C.2	1	noname
17	C14    -1.4640     2.2333     0.0000	C.2	1	noname
18	H1     7.2165     2.4395     0.0000	H	1	noname
19	H2     7.2165    -0.6403     0.0000	H	1	noname
20	H3     1.2749    -1.8107     0.0000	H	1	noname
21	H4    -0.6940    -1.7675     0.0000	H	1	noname
22	H5    -3.7740    -1.7675     0.0000	H	1	noname
23	H6    -5.3140     0.8995     0.0000	H	1	noname
24	H7    -3.7740     3.5668     0.0000	H	1	noname
25	H8    -0.6940     3.5668     0.0000	H	1	noname
@<TRIPOS>BOND
1	2	3	2
2	3	4	1
3	4	5	1
4	5	6	2
5	1	2	1
6	1	6	1
7	1	7	2
8	4	8	2
9	9	10	2
10	2	9	1
11	10	11	1
12	3	11	1
13	10	12	1
14	13	14	1
15	14	15	2
16	15	16	1
17	16	17	2
18	12	13	2
19	17	12	1
20	5	18	1
21	6	19	1
22	9	20	1
23	13	21	1
24	14	22	1
25	15	23	1
26	16	24	1
27	17	25	1
@<TRIPOS>SUBSTRUCTURE
1	noname	1
