@<TRIPOS>MOLECULE
9.67120838_9.67120838
37 40 1 0 0 
SMALL
USER_CHARGES


@<TRIPOS>ATOM
  1 C      -16.8450     4.4300    -5.7410 C.2   1 <1>   0.1240 
  2 BR     -17.8710     3.2560    -6.8500 Br    1 <1>  -0.1100 
  3 C      -15.8220     5.2700    -6.4010 C.2   1 <1>   0.6410 
  4 O      -15.4890     5.0640    -7.5210 O.2   1 <1>  -0.5700 
  5 C      -15.3400     6.3750    -5.6290 C.2   1 <1>   0.0550 
  6 O      -14.4740     7.3680    -6.1390 O.3   1 <1>  -0.2800 
  7 C      -14.2560     8.1460    -5.0580 C.2   1 <1>   0.0870 
  8 C      -15.5810     6.5250    -4.3170 C.2   1 <1>  -0.0860 
  9 C      -16.4270     5.5800    -3.5970 C.2   1 <1>   0.6420 
 10 C      -14.8950     7.6750    -3.9340 C.2   1 <1>  -0.1500 
 11 H      -14.9150     8.0360    -2.9390 H     1 <1>   0.1500 
 12 O      -16.4290     5.6640    -2.3680 O.2   1 <1>  -0.5700 
 13 C      -17.1270     4.5740    -4.3830 C.2   1 <1>   0.1140 
 14 N      -18.1330     3.7740    -3.8280 N.pl3 1 <1>  -0.6000 
 15 H      -18.9660     4.3020    -3.5220 H     1 <1>   0.4000 
 16 C      -12.7160    12.0900    -5.3320 C.ar  1 <1>  -0.1500 
 17 H      -12.4390    13.1050    -5.4560 H     1 <1>   0.1500 
 18 C      -12.3840    11.2590    -4.2260 C.ar  1 <1>  -0.1500 
 19 H      -11.8540    11.7590    -3.4570 H     1 <1>   0.1500 
 20 C      -12.8220     9.9090    -4.1300 C.ar  1 <1>  -0.1500 
 21 H      -12.5590     9.3550    -3.2660 H     1 <1>   0.1500 
 22 C      -13.6240     9.4380    -5.2420 C.ar  1 <1>   0.0530 
 23 C      -13.8580    10.2900    -6.3610 C.ar  1 <1>  -0.1500 
 24 H      -14.5870     9.9840    -7.0650 H     1 <1>   0.1500 
 25 C      -13.4290    11.5800    -6.3930 C.ar  1 <1>  -0.1500 
 26 H      -13.7720    12.2620    -7.1270 H     1 <1>   0.1500 
 27 C      -18.0340    -0.2960    -2.8340 C.ar  1 <1>  -0.1500 
 28 H      -17.9700    -1.3210    -2.5790 H     1 <1>   0.1500 
 29 C      -19.2410     0.3400    -3.0370 C.ar  1 <1>  -0.1500 
 30 H      -20.1550    -0.1530    -2.8310 H     1 <1>   0.1500 
 31 C      -19.2620     1.7150    -3.1800 C.ar  1 <1>  -0.1500 
 32 H      -20.2150     2.1760    -3.1700 H     1 <1>   0.1500 
 33 C      -18.0520     2.4530    -3.3760 C.ar  1 <1>   0.1000 
 34 C      -16.8660     1.7410    -3.2210 C.ar  1 <1>  -0.1500 
 35 H      -15.9790     2.2730    -3.4470 H     1 <1>   0.1500 
 36 C      -16.8440     0.3640    -3.0260 C.ar  1 <1>  -0.1500 
 37 H      -15.9270    -0.1560    -3.1240 H     1 <1>   0.1500 
@<TRIPOS>BOND
  1   1   2  1   
  2   1   3  1   
  3   1  13  2   
  4   3   4  2   
  5   3   5  1   
  6   5   6  1   
  7   5   8  2   
  8   6   7  1   
  9   7  10  2   
 10   7  22  1   
 11   8   9  1   
 12   8  10  1   
 13   9  12  2   
 14   9  13  1   
 15  10  11  1   
 16  13  14  1   
 17  14  15  1   
 18  14  33  1   
 19  16  17  1   
 20  16  18  ar  
 21  16  25  ar  
 22  18  19  1   
 23  18  20  ar  
 24  20  21  1   
 25  20  22  ar  
 26  22  23  ar  
 27  23  24  1   
 28  23  25  ar  
 29  25  26  1   
 30  27  28  1   
 31  27  29  ar  
 32  27  36  ar  
 33  29  30  1   
 34  29  31  ar  
 35  31  32  1   
 36  31  33  ar  
 37  33  34  ar  
 38  34  35  1   
 39  34  36  ar  
 40  36  37  1   
@<TRIPOS>SUBSTRUCTURE
  1 ****   8 GROUP 4 **** **** 0

# MOE 2019.01 (io_trps.svl 2018.10)
