@<TRIPOS>MOLECULE
100953898
31 33 1
SMALL
USER_CHARGES
@<TRIPOS>ATOM
1	O1    -0.6806     1.2356     1.4618	O.3	1	noname	-0.1851
2	O2     1.1673    -0.6060     2.3929	O.2	1	noname	-0.2825
3	O3     2.1408     1.8429    -2.2572	O.2	1	noname	-0.2951
4	O4    -4.8214    -2.0619    -1.2258	O.3	1	noname	-0.2535
5	O5    -2.9032    -2.7873    -0.4427	O.2	1	noname	-0.2535
6	N1    -3.7238    -1.8614    -0.6518	N.2	1	noname	0.1650
7	C1     2.6322    -0.3600     0.5611	C.2	1	noname	0.0230
8	C2     2.8894     0.2784    -0.6542	C.2	1	noname	0.0249
9	C3     0.4688     0.9443     0.7555	C.2	1	noname	0.0756
10	C4     1.4060    -0.0548     1.3249	C.2	1	noname	0.1032
11	C5     1.9389     1.2684    -1.1944	C.2	1	noname	0.0904
12	C6     0.7213     1.5505    -0.4067	C.2	1	noname	0.0916
13	C7     3.5422    -1.2976     1.0630	C.2	1	noname	-0.0037
14	C8     4.0555    -0.0199    -1.3683	C.2	1	noname	-0.0067
15	C9    -1.8686     0.9930     0.8338	C.2	1	noname	0.0412
16	C10     4.7038    -1.5926     0.3484	C.2	1	noname	-0.0297
17	C11     4.9597    -0.9553    -0.8645	C.2	1	noname	-0.0272
18	C12    -2.1860    -0.2990     0.4149	C.2	1	noname	0.0640
19	C13    -2.7653     2.0383     0.6118	C.2	1	noname	0.0143
20	C14    -3.4002    -0.5460    -0.2259	C.2	1	noname	0.0493
21	C15    -3.9797     1.7913    -0.0287	C.2	1	noname	-0.0126
22	C16    -4.2970     0.4991    -0.4478	C.2	1	noname	0.0226
23	H1     0.0445     2.2903    -0.8223	H	1	noname	0.0693
24	H2     3.3652    -1.8078     2.0059	H	1	noname	0.0630
25	H3     4.2768     0.4640    -2.3158	H	1	noname	0.0630
26	H4     5.4098    -2.3203     0.7380	H	1	noname	0.0622
27	H5     5.8649    -1.1872    -1.4183	H	1	noname	0.0622
28	H6    -1.4792    -1.1029     0.6072	H	1	noname	0.0701
29	H7    -2.5236     3.0469     0.9357	H	1	noname	0.0650
30	H8    -4.6776     2.6054    -0.2013	H	1	noname	0.0625
31	H9    -5.2518     0.3442    -0.9437	H	1	noname	0.0672
@<TRIPOS>BOND
1	1	9	1
2	1	15	1
3	2	10	2
4	3	11	2
5	4	6	1
6	5	6	2
7	6	20	1
8	7	8	1
9	7	10	1
10	7	13	2
11	8	11	1
12	8	14	2
13	9	10	1
14	9	12	2
15	11	12	1
16	12	23	1
17	13	16	1
18	13	24	1
19	14	17	1
20	14	25	1
21	15	18	1
22	15	19	2
23	16	17	2
24	16	26	1
25	17	27	1
26	18	20	2
27	18	28	1
28	19	21	1
29	19	29	1
30	20	22	1
31	21	22	2
32	21	30	1
33	22	31	1
@<TRIPOS>SUBSTRUCTURE
1	noname	1
