#
#	  Creating by LEA 
#

@<TRIPOS>MOLECULE
mol1
  32   34
SMALL
NO_CHARGES


@<TRIPOS>ATOM
   1 O1           0.9250     1.0997     0.5617 O.3        1 lig    0.000
   2 C2           1.9228     0.1553     0.5967 C.ar       1 lig    0.000
   3 C3          -0.3687     0.6865     0.2582 C.ar       1 lig    0.000
   4 C4          -0.6597    -0.2024    -0.7023 C.ar       1 lig    0.000
   5 C5          -2.0410    -0.5915    -1.0316 C.ar       1 lig    0.000
   6 C6          -3.1362     0.0510    -0.2865 C.ar       1 lig    0.000
   7 C7          -2.8565     0.9961     0.6976 C.ar       1 lig    0.000
   8 C8          -1.4618     1.3641     1.0135 C.ar       1 lig    0.000
   9 C9          -4.4637    -0.2917    -0.5748 C.ar       1 lig    0.000
  10 C10         -5.5081     0.3146     0.1247 C.ar       1 lig    0.000
  11 C11         -5.2304     1.2615     1.1100 C.ar       1 lig    0.000
  12 C12         -3.9077     1.6035     1.3979 C.ar       1 lig    0.000
  13 C13          3.0689     0.4023    -0.1577 C.ar       1 lig    0.000
  14 C14          4.1177    -0.5208    -0.1263 C.ar       1 lig    0.000
  15 C15          4.0280    -1.6724     0.6630 C.ar       1 lig    0.000
  16 C16          2.8861    -1.8966     1.4336 C.ar       1 lig    0.000
  17 C17          1.8348    -0.9790     1.4082 C.ar       1 lig    0.000
  18 N18          5.3043    -0.2864    -0.9071 N.pl3      1 lig    0.000
  19 O19          6.3827    -1.2050    -0.8846 O.2        1 lig    0.000
  20 O20          5.4263     0.8589    -1.7245 O.2        1 lig    0.000
  21 O21         -1.2212     2.1965     1.8808 O.2        1 lig    0.000
  22 O22         -2.2553    -1.4247    -1.9022 O.2        1 lig    0.000
  23 H23          0.1089    -0.6822    -1.2976 H          1 lig    0.000
  24 H24         -4.6877    -1.0295    -1.3438 H          1 lig    0.000
  25 H25         -6.5389     0.0486    -0.0998 H          1 lig    0.000
  26 H26         -6.0444     1.7349     1.6552 H          1 lig    0.000
  27 H27         -3.7007     2.3441     2.1690 H          1 lig    0.000
  28 H28          3.1320     1.3057    -0.7591 H          1 lig    0.000
  29 H29          4.8450    -2.3917     0.6916 H          1 lig    0.000
  30 H30          2.8209    -2.7821     2.0618 H          1 lig    0.000
  31 H31          0.9618    -1.1475     2.0330 H          1 lig    0.000
  32 H32          6.3167     0.6801    -2.0723 H          1 lig    0.000
@<TRIPOS>BOND
   1    1    2 1
   2    1    3 1
   3    4    5 ar
   4    5    6 ar
   5    6    7 ar
   6    3    8 ar
   7    3    4 ar
   8    9   10 ar
   9   10   11 ar
  10   11   12 ar
  11    7   12 ar
  12    6    9 ar
  13    7    8 ar
  14   13   14 ar
  15   14   15 ar
  16   15   16 ar
  17   16   17 ar
  18    2   17 ar
  19    2   13 ar
  20   14   18 1
  21   18   19 2
  22   18   20 2
  23    8   21 2
  24    5   22 2
  25    4   23 1
  26    9   24 1
  27   10   25 1
  28   11   26 1
  29   12   27 1
  30   13   28 1
  31   15   29 1
  32   16   30 1
  33   17   31 1
  34   20   32 1
@<TRIPOS>SUBSTRUCTURE
      1 mol1             1 ****
