@<TRIPOS>MOLECULE
NQH
35 38 1 0 0 
SMALL
USER_CHARGES


@<TRIPOS>ATOM
  1 C1      -7.9761    -5.3934    -2.2356 C.ar  1 NQH   0.0000 
  2 C2      -8.5588    -4.1020    -2.2068 C.ar  1 NQH  -0.1500 
  3 H2      -8.0672    -3.3184    -1.6862 H     1 NQH   0.1500 
  4 C3      -9.7593    -3.8659    -2.8286 C.ar  1 NQH  -0.1500 
  5 H3     -10.1937    -2.9043    -2.7786 H     1 NQH   0.1500 
  6 C4     -10.4231    -4.9072    -3.5093 C.ar  1 NQH  -0.1500 
  7 H4     -11.3556    -4.7133    -3.9684 H     1 NQH   0.1500 
  8 C5      -9.8717    -6.1650    -3.5621 C.ar  1 NQH  -0.1500 
  9 H5     -10.3786    -6.9527    -4.0562 H     1 NQH   0.1500 
 10 C6      -8.6204    -6.4298    -2.9508 C.ar  1 NQH   0.0000 
 11 C7      -8.0014    -7.7033    -3.0350 C.ar  1 NQH  -0.1500 
 12 H7      -8.4825    -8.4732    -3.5790 H     1 NQH   0.1500 
 13 C8      -6.7940    -7.9470    -2.4173 C.ar  1 NQH  -0.1500 
 14 H8      -6.3348    -8.8994    -2.4947 H     1 NQH   0.1500 
 15 C9      -6.1698    -6.9396    -1.6578 C.ar  1 NQH  -0.1500 
 16 H9      -5.2579    -7.1386    -1.1547 H     1 NQH   0.1500 
 17 C10     -6.7761    -5.7107    -1.5455 C.ar  1 NQH   0.0825 
 18 O11     -6.2393    -4.7903    -0.6888 O.3   1 NQH  -0.1592 
 19 C12     -6.6710    -4.5868     0.6107 C.2   1 NQH   0.0911 
 20 C13     -7.8043    -5.3118     1.2000 C.2   1 NQH   0.4694 
 21 O14     -8.5725    -6.0186     0.5496 O.2   1 NQH  -0.5700 
 22 C15     -8.0537    -5.1511     2.6261 C.ar  1 NQH   0.0862 
 23 C16     -7.3685    -4.1518     3.3410 C.ar  1 NQH   0.0862 
 24 C17     -6.2522    -3.4581     2.7218 C.2   1 NQH   0.4694 
 25 O18     -5.5182    -2.7466     3.4059 O.2   1 NQH  -0.5700 
 26 C19     -5.9606    -3.6802     1.3349 C.2   1 NQH  -0.1356 
 27 H10     -5.1679    -3.1325     0.8971 H     1 NQH   0.1500 
 28 C20     -8.9709    -5.9670     3.3031 C.ar  1 NQH  -0.1500 
 29 H11     -9.4477    -6.7636     2.7897 H     1 NQH   0.1500 
 30 C21     -9.2669    -5.7352     4.6404 C.ar  1 NQH  -0.1500 
 31 H12     -9.9463    -6.3646     5.1559 H     1 NQH   0.1500 
 32 C22     -8.6954    -4.6534     5.3009 C.ar  1 NQH  -0.1500 
 33 H13     -8.9891    -4.4392     6.2981 H     1 NQH   0.1500 
 34 C23     -7.7523    -3.8666     4.6578 C.ar  1 NQH  -0.1500 
 35 H14     -7.3070    -3.0448     5.1598 H     1 NQH   0.1500 
@<TRIPOS>BOND
  1   1   2  ar  
  2   1  10  ar  
  3   1  17  ar  
  4   2   3  1   
  5   2   4  ar  
  6   4   5  1   
  7   4   6  ar  
  8   6   7  1   
  9   6   8  ar  
 10   8   9  1   
 11   8  10  ar  
 12  10  11  ar  
 13  11  12  1   
 14  11  13  ar  
 15  13  14  1   
 16  13  15  ar  
 17  15  16  1   
 18  15  17  ar  
 19  17  18  1   
 20  18  19  1   
 21  19  20  1   
 22  19  26  2   
 23  20  21  2   
 24  20  22  1   
 25  22  23  ar  
 26  22  28  ar  
 27  23  24  1   
 28  23  34  ar  
 29  24  25  2   
 30  24  26  1   
 31  26  27  1   
 32  28  29  1   
 33  28  30  ar  
 34  30  31  1   
 35  30  32  ar  
 36  32  33  1   
 37  32  34  ar  
 38  34  35  1   
@<TRIPOS>SUBSTRUCTURE
  1 NQH  20 GROUP 4 **** **** 0

# MOE 2019.01 (io_trps.svl 2018.10)
