@<TRIPOS>MOLECULE

39 42 1
SMALL
NO_CHARGES
@<TRIPOS>ATOM
1	C1    -4.5832     4.1233     0.0000	C.2	1	noname
2	C2    -5.9170     3.3533     0.0000	C.2	1	noname
3	C3    -5.9170     1.8131     0.0000	C.2	1	noname
4	C4    -4.5832     1.0433     0.0000	C.2	1	noname
5	C5    -3.2495     1.8131     0.0000	C.2	1	noname
6	C6    -3.2495     3.3533     0.0000	C.2	1	noname
7	O1    -4.5832     5.6633     0.0000	O.2	1	noname
8	O2    -4.5832    -0.4965     0.0000	O.2	1	noname
9	N1    -7.3815     3.8293     0.0000	N.2	1	noname
10	C7    -8.2869     2.5835     0.0000	C.2	1	noname
11	S1    -7.3817     1.3375     0.0000	S.3	1	noname
12	C8    -9.8269     2.5837     0.0000	C.2	1	noname
13	C9   -10.5967     3.9172     0.0000	C.2	1	noname
14	C10   -12.1369     3.9172     0.0000	C.2	1	noname
15	C11   -12.9071     2.5837     0.0000	C.2	1	noname
16	C12   -12.1371     1.2499     0.0000	C.2	1	noname
17	C13   -10.5969     1.2499     0.0000	C.2	1	noname
18	O3    -1.9159     1.0431     0.0000	O.3	1	noname
19	C14    -0.5820     1.8129     0.0000	C.2	1	noname
20	C15     0.7511     1.0431     0.0000	C.2	1	noname
21	C16     2.0851     1.8131     0.0000	C.2	1	noname
22	C17     2.0853     3.3529     0.0000	C.2	1	noname
23	C18     0.7515     4.1231     0.0000	C.2	1	noname
24	C19    -0.5820     3.3529     0.0000	C.2	1	noname
25	O4     3.4190     4.1227     0.0000	O.3	1	noname
26	C20     4.7525     3.3527     0.0000	C.3	1	noname
27	H1    -1.9158     4.1233     0.0000	H	1	noname
28	H2    -9.8267     5.2507     0.0000	H	1	noname
29	H3   -12.9069     5.2509     0.0000	H	1	noname
30	H4   -14.4471     2.5838     0.0000	H	1	noname
31	H5   -12.9071    -0.0834     0.0000	H	1	noname
32	H6    -9.8269    -0.0836     0.0000	H	1	noname
33	H7     0.7511    -0.4967     0.0000	H	1	noname
34	H8     3.4188     1.0429     0.0000	H	1	noname
35	H9     0.7515     5.6631     0.0000	H	1	noname
36	H10    -1.2085     4.7598     0.0000	H	1	noname
37	H11     3.9825     2.0192     0.0000	H	1	noname
38	H12     6.0863     2.5827     0.0000	H	1	noname
39	H13     5.5227     4.6865     0.0000	H	1	noname
@<TRIPOS>BOND
1	1	2	1
2	1	6	1
3	2	3	2
4	3	4	1
5	4	5	1
6	5	6	2
7	10	12	1
8	13	14	1
9	14	15	2
10	15	16	1
11	16	17	2
12	12	13	2
13	17	12	1
14	5	18	1
15	4	8	2
16	1	7	2
17	18	19	1
18	20	21	1
19	21	22	2
20	22	23	1
21	23	24	2
22	19	20	2
23	24	19	1
24	22	25	1
25	10	11	1
26	3	11	1
27	9	10	2
28	2	9	1
29	25	26	1
30	6	27	1
31	13	28	1
32	14	29	1
33	15	30	1
34	16	31	1
35	17	32	1
36	20	33	1
37	21	34	1
38	23	35	1
39	24	36	1
40	26	37	1
41	26	38	1
42	26	39	1
@<TRIPOS>SUBSTRUCTURE
1	noname	1
