@<TRIPOS>MOLECULE

24 26 1
SMALL
NO_CHARGES
@<TRIPOS>ATOM
1	C1    -3.9166     2.3317     0.0000	C.2	1	noname
2	C2    -5.2502     1.5617     0.0000	C.2	1	noname
3	C3    -5.2502     0.0215     0.0000	C.2	1	noname
4	C4    -3.9166    -0.7483     0.0000	C.2	1	noname
5	C5    -2.5829     0.0215     0.0000	C.2	1	noname
6	C6    -2.5829     1.5617     0.0000	C.2	1	noname
7	N1    -6.7148     2.0377     0.0000	N.2	1	noname
8	C7    -7.6199     0.7918     0.0000	C.2	1	noname
9	S1    -6.7150    -0.4538     0.0000	S.3	1	noname
10	C8    -9.1599     0.7918     0.0000	C.2	1	noname
11	C9    -9.9299     2.1254     0.0000	C.2	1	noname
12	C10   -11.4703     2.1256     0.0000	C.2	1	noname
13	C11   -12.2403     0.7920     0.0000	C.2	1	noname
14	C12   -11.4703    -0.5415     0.0000	C.2	1	noname
15	C13    -9.9301    -0.5417     0.0000	C.2	1	noname
16	Br1    -1.2494    -0.7483     0.0000	Br	1	noname
17	O1    -3.9166     3.8717     0.0000	O.2	1	noname
18	O2    -3.9166    -2.2883     0.0000	O.2	1	noname
19	H1    -1.2494     2.3317     0.0000	H	1	noname
20	H2    -9.1599     3.4591     0.0000	H	1	noname
21	H3   -12.2401     3.4591     0.0000	H	1	noname
22	H4   -13.7803     0.7920     0.0000	H	1	noname
23	H5   -12.2403    -1.8753     0.0000	H	1	noname
24	H6    -9.1601    -1.8753     0.0000	H	1	noname
@<TRIPOS>BOND
1	1	2	1
2	2	3	2
3	3	4	1
4	4	5	1
5	5	6	2
6	6	1	1
7	10	11	2
8	11	12	1
9	12	13	2
10	13	14	1
11	14	15	2
12	15	10	1
13	8	10	1
14	7	8	2
15	2	7	1
16	8	9	1
17	3	9	1
18	1	17	2
19	4	18	2
20	5	16	1
21	6	19	1
22	11	20	1
23	12	21	1
24	13	22	1
25	14	23	1
26	15	24	1
@<TRIPOS>SUBSTRUCTURE
1	noname	1
